Info: SIMULATION PARAMETERS:
Info: TIMESTEP               2
Info: NUMBER OF STEPS        0
Info: STEPS PER CYCLE        10
Info: PERIODIC CELL BASIS 1  29 0 0
Info: PERIODIC CELL BASIS 2  0 30 0
Info: PERIODIC CELL BASIS 3  0 0 41.5
Info: PERIODIC CELL CENTER   -3.16675 -3.87841 10.2193
Info: WRAPPING ALL CLUSTERS AROUND PERIODIC BOUNDARIES ON OUTPUT.
Info: FIRST LDB TIMESTEP     50
Info: LAST LDB TIMESTEP     -1
Info: HOM BACKGROUND SCALING 1
Info: PME BACKGROUND SCALING 1
Info: MIN ATOMS PER PATCH    40
Info: INITIAL TEMPERATURE    473
Info: CENTER OF MASS MOVING INITIALLY? NO
Info: DIELECTRIC             1
Info: EXCLUDE                SCALED ONE-FOUR
Info: 1-4 ELECTROSTATICS SCALED BY 1
Info: MODIFIED 1-4 VDW PARAMETERS WILL BE USED
Info: DCD FILENAME           DMPC_473.dcd
Info: DCD FREQUENCY          10000
Info: DCD FIRST STEP         10000
Info: DCD FILE WILL CONTAIN UNIT CELL DATA
Info: XST FILENAME           DMPC_473.xst
Info: XST FREQUENCY          10000
Info: NO VELOCITY DCD OUTPUT
Info: NO FORCE DCD OUTPUT
Info: OUTPUT FILENAME        DMPC_473
Info: BINARY OUTPUT FILES WILL BE USED
Info: RESTART FILENAME       DMPC_473.restart
Info: RESTART FREQUENCY      500000
Info: BINARY RESTART FILES WILL BE USED
Info: SWITCHING ACTIVE
Info: SWITCHING ON           10
Info: SWITCHING OFF          12
Info: PAIRLIST DISTANCE      15
Info: PAIRLIST SHRINK RATE   0.01
Info: PAIRLIST GROW RATE     0.01
Info: PAIRLIST TRIGGER       0.3
Info: PAIRLISTS PER CYCLE    2
Info: PAIRLISTS ENABLED
Info: MARGIN                 8
Info: HYDROGEN GROUP CUTOFF  2.5
Info: PATCH DIMENSION        25.5
Info: ENERGY OUTPUT STEPS    10000
Info: CROSSTERM ENERGY INCLUDED IN DIHEDRAL
Info: TIMING OUTPUT STEPS    100000
Info: PRESSURE OUTPUT STEPS  10000
Info: TEMPERATURE COUPLING ACTIVE
Info: COUPLING TEMPERATURE   473
Info: LANGEVIN PISTON PRESSURE CONTROL ACTIVE
Info:        TARGET PRESSURE IS 1.01325 BAR
Info:     OSCILLATION PERIOD IS 100 FS
Info:             DECAY TIME IS 50 FS
Info:     PISTON TEMPERATURE IS 473 K
Info:       PRESSURE CONTROL IS GROUP-BASED
Info:    INITIAL STRAIN RATE IS 0 0 0
Info:       CELL FLUCTUATION IS ISOTROPIC
Info: PARTICLE MESH EWALD (PME) ACTIVE
Info: PME TOLERANCE               1e-06
Info: PME EWALD COEFFICIENT       0.257952
Info: PME INTERPOLATION ORDER     4
Info: PME GRID DIMENSIONS         30 30 60
Info: PME MAXIMUM GRID SPACING    1.5
Info: FULL ELECTROSTATIC EVALUATION FREQUENCY      2
Info: USING VERLET I (r-RESPA) MTS SCHEME.
Info: C1 SPLITTING OF LONG RANGE ELECTROSTATICS
Info: PLACING ATOMS IN PATCHES BY HYDROGEN GROUPS
Info: RIGID BONDS TO HYDROGEN : ALL
Info:         ERROR TOLERANCE : 1e-08
Info:          MAX ITERATIONS : 100
Info: RIGID WATER USING SETTLE ALGORITHM
Info: RANDOM NUMBER SEED     1525543215
Info: USE HYDROGEN BONDS?    NO
Info: COORDINATE PDB         ./dmpc_solvate_ionized.pdb
Info: STRUCTURE FILE         ./dmpc_solvate_ionized.psf
Info: PARAMETER file: CHARMM format!
Info: PARAMETERS             ./par_water_ions.prm
Info: PARAMETERS             ./par_all36_lipid.prm
Info: USING ARITHMETIC MEAN TO COMBINE L-J SIGMA PARAMETERS
Info: SUMMARY OF PARAMETERS:
Info: 53 BONDS
Info: 132 ANGLES
Info: 180 DIHEDRAL
Info: 4 IMPROPER
Info: 0 CROSSTERM
Info: 46 VDW
Info: 2 VDW_PAIRS
Info: 0 NBTHOLE_PAIRS
Info: STRUCTURE SUMMARY:
Info: 3109 ATOMS
Info: 2107 BONDS
Info: 1221 ANGLES
Info: 313 DIHEDRALS
Info: 2 IMPROPERS
Info: 0 CROSSTERMS
Info: 0 EXCLUSIONS
Info: 3057 RIGID BONDS
Info: 6267 DEGREES OF FREEDOM
Info: 1047 HYDROGEN GROUPS
Info: 4 ATOMS IN LARGEST HYDROGEN GROUP
Info: 1047 MIGRATION GROUPS
Info: 4 ATOMS IN LARGEST MIGRATION GROUP
Info: TOTAL MASS = 18778.6 amu
Info: TOTAL CHARGE = 5.21541e-08 e
Info: MASS DENSITY = 0.863684 g/cm^3
Info: ATOM DENSITY = 0.08611 atoms/A^3
Info: ADDED 3641 IMPLICIT EXCLUSIONS
Info: NONBONDED TABLE R-SQUARED SPACING: 0.0625
Info: NONBONDED TABLE SIZE: 769 POINTS
Info: REMOVING COM VELOCITY -0.0302126 -0.191625 -0.0822449
TCL: Minimizing for 5000 steps
ETITLE: TS BOND ANGLE DIHED IMPRP ELECT VDW BOUNDARY MISC KINETIC TOTAL TEMP POTENTIAL TOTAL3 TEMPAVG PRESSURE GPRESSURE VOLUME PRESSAVG GPRESSAVG
ENERGY: 0 939.0352 280.7468 44.1348 0.2121 -9292.3686 10363.9473 0.0000 0.0000 0.0000 2335.7076 0.0000 2335.7076 2335.7076 0.0000 68669.6569 74400.8686 36105.0000 68669.6569 74400.8686
ENERGY: 1000 447.6544 305.2257 36.1865 0.5066 -15214.0774 1730.0062 0.0000 0.0000 0.0000 -12694.4980 0.0000 -12694.4980 -12694.4980 0.0000 -4703.0658 -4926.5943 36105.0000 -4703.0658 -4926.5943
ENERGY: 2000 455.8880 309.1505 36.5116 0.0305 -15650.7837 1855.6026 0.0000 0.0000 0.0000 -12993.6005 0.0000 -12993.6005 -12993.6005 0.0000 -4550.0657 -4527.5235 36105.0000 -4550.0657 -4527.5235
ENERGY: 3000 478.6974 317.3127 37.0124 0.1930 -15810.9868 1918.3790 0.0000 0.0000 0.0000 -13059.3923 0.0000 -13059.3923 -13059.3923 0.0000 -4185.4815 -4172.6370 36105.0000 -4185.4815 -4172.6370
ENERGY: 4000 464.1967 315.3174 36.5369 0.0047 -15867.3857 1927.6917 0.0000 0.0000 0.0000 -13123.6384 0.0000 -13123.6384 -13123.6384 0.0000 -4244.2445 -4245.5654 36105.0000 -4244.2445 -4245.5654
ENERGY: 5000 465.3845 314.6005 36.7069 0.0139 -15894.1898 1927.7190 0.0000 0.0000 0.0000 -13149.7650 0.0000 -13149.7650 -13149.7650 0.0000 -4283.2205 -4280.0065 36105.0000 -4283.2205 -4280.0065
TCL: Running for 1000000 steps
ETITLE: TS BOND ANGLE DIHED IMPRP ELECT VDW BOUNDARY MISC KINETIC TOTAL TEMP POTENTIAL TOTAL3 TEMPAVG PRESSURE GPRESSURE VOLUME PRESSAVG GPRESSAVG
ENERGY: 10000 20.3402 112.4040 58.6503 0.6460 -8825.9871 607.8418 0.0000 0.0000 2913.3364 -5112.7683 467.8658 -8026.1048 -5106.6536 439.5363 -201.7097 -173.5688 38416.0437 3.9330 4.2094
ENERGY: 210000 18.2981 85.6180 48.2573 0.0879 -8930.7360 637.1776 0.0000 0.0000 3017.2521 -5124.0450 484.5541 -8141.2971 -5117.2948 472.7721 -235.1563 -208.1582 38352.7783 1.9684 1.9681
ENERGY: 410000 13.7761 98.9571 51.6982 0.5762 -9009.3399 750.9399 0.0000 0.0000 2955.6650 -5137.7275 474.6636 -8093.3925 -5132.1223 473.0542 721.0053 752.7386 38498.5133 8.0391 8.0396
ENERGY: 600000 17.4799 113.0271 51.4439 1.5295 -8906.3823 613.1628 0.0000 0.0000 2991.6558 -5118.0833 480.4435 -8109.7392 -5112.4602 472.9731 -79.3983 -50.2463 38520.3262 -4.2848 -4.2846
ENERGY: 800000 21.4138 117.8319 58.3522 0.9663 -8881.5054 658.9817 0.0000 0.0000 2868.5470 -5155.4125 460.6729 -8023.9595 -5149.2552 473.1572 -123.1375 -98.2780 38924.2973 10.1016 10.1015
ENERGY: 1000000 23.4435 88.5821 55.3666 0.4013 -8988.2893 675.2167 0.0000 0.0000 3015.0454 -5130.2337 484.1997 -8145.2791 -5124.0587 473.1254 -286.0052 -261.2327 38634.9676 5.0605 5.0580
